LAMMPS (24 Dec 2020)
variable lattice_spacing equal 3.80

label loop1
variable a loop 10
Lattice_spacing is 3.8

units metal
boundary f f f
atom_style atomic

lattice fcc 3.8 origin 0 0 0
Lattice spacing in x,y,z = 3.8000000 3.8000000 3.8000000
region r1 block 0 8 0 8 0 8 units lattice side in
create_box 1 r1
Created orthogonal box = (0.0000000 0.0000000 0.0000000) to (30.400000 30.400000 30.400000)
#if "$a == 1" then "create_box 1 region$a"
#if "$a > 1" then "delete_atoms group 1" #"change_box 1 boundary p p f units lattice" #"reset_timestep 0"
mass 1 26.98
create_atoms 1 region r1
Created 2048 atoms
group 1 type 1
2048 atoms in group 1
pair_style kim Morse_Shifted_GirifalcoWeizer_1959MedCutoff_Al__MO_279544746097_004
pair_coeff * * Al
neighbor 2.5 bin
neigh_modify every 1 delay 1
timestep 0.001
dump 1 all atom 100 dump.Al_3.8
thermo 100
thermo_style custom step temp press pe ke etotal
fix 1 all nvt temp 0.0001 0.0001 0.01
run 10000
  update every 1 steps, delay 1 steps, check yes
Step Temp Press PotEng KinEng TotEng
0            0    240066.42   -4436.5949            0   -4436.5949
Averages over the last 51 of 101 rows, steps 5000 to 10000:
Temp Press PotEng KinEng TotEng
0 103818 -4817.07 0 -4817.07
Loop time of 69.8081 on 1 procs for 10000 steps with 2048 atoms

unfix 1
clear
variable lattice_spacing equal 3.8+0.05
next a
jump SELF loop1
variable a loop 10
Lattice_spacing is 3.85

units metal
boundary f f f
atom_style atomic

lattice fcc 3.85 origin 0 0 0
Lattice spacing in x,y,z = 3.8500000 3.8500000 3.8500000
region r1 block 0 8 0 8 0 8 units lattice side in
create_box 1 r1
Created orthogonal box = (0.0000000 0.0000000 0.0000000) to (30.800000 30.800000 30.800000)
#if "$a == 1" then "create_box 1 region$a"
#if "$a > 1" then "delete_atoms group 1" #"change_box 1 boundary p p f units lattice" #"reset_timestep 0"
mass 1 26.98
create_atoms 1 region r1
Created 2048 atoms
group 1 type 1
2048 atoms in group 1
pair_style kim Morse_Shifted_GirifalcoWeizer_1959MedCutoff_Al__MO_279544746097_004
pair_coeff * * Al
neighbor 2.5 bin
neigh_modify every 1 delay 1
timestep 0.001
dump 1 all atom 100 dump.Al_3.85
thermo 100
thermo_style custom step temp press pe ke etotal
fix 1 all nvt temp 0.0001 0.0001 0.01
run 10000
  update every 1 steps, delay 1 steps, check yes
Step Temp Press PotEng KinEng TotEng
0            0    185057.47   -4584.7107            0   -4584.7107
Averages over the last 51 of 101 rows, steps 5000 to 10000:
Temp Press PotEng KinEng TotEng
0 79902.1 -4856.48 0 -4856.48
Loop time of 63.4093 on 1 procs for 10000 steps with 2048 atoms

unfix 1
clear
variable lattice_spacing equal 3.85+0.05
next a
jump SELF loop1
variable a loop 10
Lattice_spacing is 3.9

units metal
boundary f f f
atom_style atomic

lattice fcc 3.9 origin 0 0 0
Lattice spacing in x,y,z = 3.9000000 3.9000000 3.9000000
region r1 block 0 8 0 8 0 8 units lattice side in
create_box 1 r1
Created orthogonal box = (0.0000000 0.0000000 0.0000000) to (31.200000 31.200000 31.200000)
#if "$a == 1" then "create_box 1 region$a"
#if "$a > 1" then "delete_atoms group 1" #"change_box 1 boundary p p f units lattice" #"reset_timestep 0"
mass 1 26.98
create_atoms 1 region r1
Created 2048 atoms
group 1 type 1
2048 atoms in group 1
pair_style kim Morse_Shifted_GirifalcoWeizer_1959MedCutoff_Al__MO_279544746097_004
pair_coeff * * Al
neighbor 2.5 bin
neigh_modify every 1 delay 1
timestep 0.001
dump 1 all atom 100 dump.Al_3.9
thermo 100
thermo_style custom step temp press pe ke etotal
fix 1 all nvt temp 0.0001 0.0001 0.01
run 10000
  update every 1 steps, delay 1 steps, check yes
Step Temp Press PotEng KinEng TotEng
0            0    135718.42   -4699.6042            0   -4699.6042
Averages over the last 51 of 101 rows, steps 5000 to 10000:
Temp Press PotEng KinEng TotEng
0 57726.1 -4887.04 0 -4887.04
Loop time of 62.027 on 1 procs for 10000 steps with 2048 atoms

unfix 1
clear
variable lattice_spacing equal 3.9+0.05
next a
jump SELF loop1
variable a loop 10
Lattice_spacing is 3.95

units metal
boundary f f f
atom_style atomic

lattice fcc 3.95 origin 0 0 0
Lattice spacing in x,y,z = 3.9500000 3.9500000 3.9500000
region r1 block 0 8 0 8 0 8 units lattice side in
create_box 1 r1
Created orthogonal box = (0.0000000 0.0000000 0.0000000) to (31.600000 31.600000 31.600000)
#if "$a == 1" then "create_box 1 region$a"
#if "$a > 1" then "delete_atoms group 1" #"change_box 1 boundary p p f units lattice" #"reset_timestep 0"
mass 1 26.98
create_atoms 1 region r1
Created 2048 atoms
group 1 type 1
2048 atoms in group 1
pair_style kim Morse_Shifted_GirifalcoWeizer_1959MedCutoff_Al__MO_279544746097_004
pair_coeff * * Al
neighbor 2.5 bin
neigh_modify every 1 delay 1
timestep 0.001
dump 1 all atom 100 dump.Al_3.95
thermo 100
thermo_style custom step temp press pe ke etotal
fix 1 all nvt temp 0.0001 0.0001 0.01
run 10000
  update every 1 steps, delay 1 steps, check yes
Step Temp Press PotEng KinEng TotEng
0            0    93751.754   -4783.8455            0   -4783.8455
Averages over the last 51 of 101 rows, steps 5000 to 10000:
Temp Press PotEng KinEng TotEng
0 37799.3 -4909.21 0 -4909.21
Loop time of 61.5903 on 1 procs for 10000 steps with 2048 atoms

unfix 1
clear
variable lattice_spacing equal 3.95+0.05
next a
jump SELF loop1
variable a loop 10
Lattice_spacing is 4

units metal
boundary f f f
atom_style atomic

lattice fcc 4 origin 0 0 0
Lattice spacing in x,y,z = 4.0000000 4.0000000 4.0000000
region r1 block 0 8 0 8 0 8 units lattice side in
create_box 1 r1
Created orthogonal box = (0.0000000 0.0000000 0.0000000) to (32.000000 32.000000 32.000000)
#if "$a == 1" then "create_box 1 region$a"
#if "$a > 1" then "delete_atoms group 1" #"change_box 1 boundary p p f units lattice" #"reset_timestep 0"
mass 1 26.98
create_atoms 1 region r1
Created 2048 atoms
group 1 type 1
2048 atoms in group 1
pair_style kim Morse_Shifted_GirifalcoWeizer_1959MedCutoff_Al__MO_279544746097_004
pair_coeff * * Al
neighbor 2.5 bin
neigh_modify every 1 delay 1
timestep 0.001
dump 1 all atom 100 dump.Al_4
thermo 100
thermo_style custom step temp press pe ke etotal
fix 1 all nvt temp 0.0001 0.0001 0.01
run 10000
  update every 1 steps, delay 1 steps, check yes
Step Temp Press PotEng KinEng TotEng
0            0    58870.916   -4841.0315            0   -4841.0315
Averages over the last 51 of 101 rows, steps 5000 to 10000:
Temp Press PotEng KinEng TotEng
0 19927.6 -4922.9 0 -4922.9
Loop time of 58.7444 on 1 procs for 10000 steps with 2048 atoms

unfix 1
clear
variable lattice_spacing equal 4+0.05
next a
jump SELF loop1
variable a loop 10
Lattice_spacing is 4.05

units metal
boundary f f f
atom_style atomic

lattice fcc 4.05 origin 0 0 0
Lattice spacing in x,y,z = 4.0500000 4.0500000 4.0500000
region r1 block 0 8 0 8 0 8 units lattice side in
create_box 1 r1
Created orthogonal box = (0.0000000 0.0000000 0.0000000) to (32.400000 32.400000 32.400000)
#if "$a == 1" then "create_box 1 region$a"
#if "$a > 1" then "delete_atoms group 1" #"change_box 1 boundary p p f units lattice" #"reset_timestep 0"
mass 1 26.98
create_atoms 1 region r1
Created 2048 atoms
group 1 type 1
2048 atoms in group 1
pair_style kim Morse_Shifted_GirifalcoWeizer_1959MedCutoff_Al__MO_279544746097_004
pair_coeff * * Al
neighbor 2.5 bin
neigh_modify every 1 delay 1
timestep 0.001
dump 1 all atom 100 dump.Al_4.05
thermo 100
thermo_style custom step temp press pe ke etotal
fix 1 all nvt temp 0.0001 0.0001 0.01
run 10000
  update every 1 steps, delay 1 steps, check yes
Step Temp Press PotEng KinEng TotEng
0            0    28728.115   -4874.6626            0   -4874.6626
Averages over the last 51 of 101 rows, steps 5000 to 10000:
Temp Press PotEng KinEng TotEng
0 4010.68 -4928.09 0 -4928.09
Loop time of 57.6978 on 1 procs for 10000 steps with 2048 atoms

unfix 1
clear
variable lattice_spacing equal 4.05+0.05
next a
jump SELF loop1
variable a loop 10
Lattice_spacing is 4.1

units metal
boundary f f f
atom_style atomic

lattice fcc 4.1 origin 0 0 0
Lattice spacing in x,y,z = 4.1000000 4.1000000 4.1000000
region r1 block 0 8 0 8 0 8 units lattice side in
create_box 1 r1
Created orthogonal box = (0.0000000 0.0000000 0.0000000) to (32.800000 32.800000 32.800000)
#if "$a == 1" then "create_box 1 region$a"
#if "$a > 1" then "delete_atoms group 1" #"change_box 1 boundary p p f units lattice" #"reset_timestep 0"
mass 1 26.98
create_atoms 1 region r1
Created 2048 atoms
group 1 type 1
2048 atoms in group 1
pair_style kim Morse_Shifted_GirifalcoWeizer_1959MedCutoff_Al__MO_279544746097_004
pair_coeff * * Al
neighbor 2.5 bin
neigh_modify every 1 delay 1
timestep 0.001
dump 1 all atom 100 dump.Al_4.1
thermo 100
thermo_style custom step temp press pe ke etotal
fix 1 all nvt temp 0.0001 0.0001 0.01
run 10000
  update every 1 steps, delay 1 steps, check yes
Step Temp Press PotEng KinEng TotEng
0            0    3399.3141   -4887.1113            0   -4887.1113
Averages over the last 51 of 101 rows, steps 5000 to 10000:
Temp Press PotEng KinEng TotEng
0 -10254.4 -4924.74 0 -4924.74
Loop time of 57.0418 on 1 procs for 10000 steps with 2048 atoms

unfix 1
clear
variable lattice_spacing equal 4.1+0.05
next a
jump SELF loop1
variable a loop 10
Lattice_spacing is 4.15

units metal
boundary f f f
atom_style atomic

lattice fcc 4.15 origin 0 0 0
Lattice spacing in x,y,z = 4.1500000 4.1500000 4.1500000
region r1 block 0 8 0 8 0 8 units lattice side in
create_box 1 r1
Created orthogonal box = (0.0000000 0.0000000 0.0000000) to (33.200000 33.200000 33.200000)
#if "$a == 1" then "create_box 1 region$a"
#if "$a > 1" then "delete_atoms group 1" #"change_box 1 boundary p p f units lattice" #"reset_timestep 0"
mass 1 26.98
create_atoms 1 region r1
Created 2048 atoms
group 1 type 1
2048 atoms in group 1
pair_style kim Morse_Shifted_GirifalcoWeizer_1959MedCutoff_Al__MO_279544746097_004
pair_coeff * * Al
neighbor 2.5 bin
neigh_modify every 1 delay 1
timestep 0.001
dump 1 all atom 100 dump.Al_4.15
thermo 100
thermo_style custom step temp press pe ke etotal
fix 1 all nvt temp 0.0001 0.0001 0.01
run 10000
  update every 1 steps, delay 1 steps, check yes
Step Temp Press PotEng KinEng TotEng
0            0   -17763.565   -4880.9554            0   -4880.9554
Averages over the last 51 of 101 rows, steps 5000 to 10000:
Temp Press PotEng KinEng TotEng
0 -22841.9 -4912.99 0 -4912.99
Loop time of 56.9138 on 1 procs for 10000 steps with 2048 atoms

unfix 1
clear
variable lattice_spacing equal 4.15+0.05
next a
jump SELF loop1
variable a loop 10
Lattice_spacing is 4.2

units metal
boundary f f f
atom_style atomic

lattice fcc 4.2 origin 0 0 0
Lattice spacing in x,y,z = 4.2000000 4.2000000 4.2000000
region r1 block 0 8 0 8 0 8 units lattice side in
create_box 1 r1
Created orthogonal box = (0.0000000 0.0000000 0.0000000) to (33.600000 33.600000 33.600000)
#if "$a == 1" then "create_box 1 region$a"
#if "$a > 1" then "delete_atoms group 1" #"change_box 1 boundary p p f units lattice" #"reset_timestep 0"
mass 1 26.98
create_atoms 1 region r1
Created 2048 atoms
group 1 type 1
2048 atoms in group 1
pair_style kim Morse_Shifted_GirifalcoWeizer_1959MedCutoff_Al__MO_279544746097_004
pair_coeff * * Al
neighbor 2.5 bin
neigh_modify every 1 delay 1
timestep 0.001
dump 1 all atom 100 dump.Al_4.2
thermo 100
thermo_style custom step temp press pe ke etotal
fix 1 all nvt temp 0.0001 0.0001 0.01
run 10000
  update every 1 steps, delay 1 steps, check yes
Step Temp Press PotEng KinEng TotEng
0            0   -34753.808   -4858.8168            0   -4858.8168
Averages over the last 51 of 101 rows, steps 5000 to 10000:
Temp Press PotEng KinEng TotEng
0 -33700 -4893.02 0 -4893.02
Loop time of 54.539 on 1 procs for 10000 steps with 2048 atoms

unfix 1
clear
variable lattice_spacing equal 4.2+0.05
next a
jump SELF loop1
variable a loop 10
Lattice_spacing is 4.25

units metal
boundary f f f
atom_style atomic

lattice fcc 4.25 origin 0 0 0
Lattice spacing in x,y,z = 4.2500000 4.2500000 4.2500000
region r1 block 0 8 0 8 0 8 units lattice side in
create_box 1 r1
Created orthogonal box = (0.0000000 0.0000000 0.0000000) to (34.000000 34.000000 34.000000)
#if "$a == 1" then "create_box 1 region$a"
#if "$a > 1" then "delete_atoms group 1" #"change_box 1 boundary p p f units lattice" #"reset_timestep 0"
mass 1 26.98
create_atoms 1 region r1
Created 2048 atoms
group 1 type 1
2048 atoms in group 1
pair_style kim Morse_Shifted_GirifalcoWeizer_1959MedCutoff_Al__MO_279544746097_004
pair_coeff * * Al
neighbor 2.5 bin
neigh_modify every 1 delay 1
timestep 0.001
dump 1 all atom 100 dump.Al_4.25
thermo 100
thermo_style custom step temp press pe ke etotal
fix 1 all nvt temp 0.0001 0.0001 0.01
run 10000
  update every 1 steps, delay 1 steps, check yes
Step Temp Press PotEng KinEng TotEng
0            0   -49288.456    -4822.629            0    -4822.629
Averages over the last 51 of 101 rows, steps 5000 to 10000:
Temp Press PotEng KinEng TotEng
0 -43072.7 -4865.4 0 -4865.4
Loop time of 52.0169 on 1 procs for 10000 steps with 2048 atoms

unfix 1
clear
variable lattice_spacing equal 4.25+0.05
next a
jump SELF loop1
variable a delete
print "done..."
done...
