LAMMPS (24 Dec 2020)
variable t equal 0.001
variable dt equal 0.0001
label loop1
variable b index "Morse_Shifted_GirifalcoWeizer_1959HighCutoff_Ni__MO_381861218831_004" "Morse_Shifted_GirifalcoWeizer_1959LowCutoff_Ni__MO_322509103239_004" "Morse_Shifted_GirifalcoWeizer_1959MedCutoff_Ni__MO_758825945924_004"
variable c index "HighCutoff" "LowCutoff" "MedCutoff"
units metal
boundary f f f
atom_style atomic
lattice custom 3.5238 a1 1.0 0.0 0.0 a2 0.0 1.0 0.0 a3 0.0 0.0 1.0 basis 0.25 0.25 0.25 basis 0.25 0.75 0.75 basis 0.75 0.25 0.75 basis 0.75 0.75 0.25
Lattice spacing in x,y,z = 3.5238000 3.5238000 3.5238000
region 1 sphere 20.0 20.0 20.0 5.0
region 2 block 0.0 40.0 0.0 40.0 0.0 40.0
create_box 1 2
Created orthogonal box = (0.0000000 0.0000000 0.0000000) to (140.95200 140.95200 140.95200)
mass 1 58.6934
create_atoms 1 region 1
Created 2112 atoms
group 1 type 1
2112 atoms in group 1
pair_style kim $b
pair_style kim Morse_Shifted_GirifalcoWeizer_1959HighCutoff_Ni__MO_381861218831_004
pair_coeff * * Ni
neighbor 2.5 bin
neigh_modify every 1 delay 1
dump 1 all atom 100 dump.Ni_$c
dump 1 all atom 100 dump.Ni_HighCutoff
compute 1 1 pe/atom
compute 2 1 ke/atom
compute ape 1 reduce ave c_1
compute ake 1 reduce ave c_2
thermo_style custom step temp press c_ape c_ake
thermo 100
variable te equal 1200
fix 1 1 nvt temp 0.001 1200 0.01 fixedpoint 20.0 20.0 20.0
timestep 0.0001
run 50000
  update every 1 steps, delay 1 steps, check yes
Step Temp Press c_ape c_ake
0            0       487.34   -3.6050352            0
Averages over the last 251 of 501 rows, steps 25000 to 50000:
Temp Press c_ape c_ake
897.311 -35.4195 -3.5103 0.115932
Loop time of 351.672 on 4 procs for 50000 steps with 2112 atoms

unfix 1
reset_timestep 0
label loop2
variable a loop 10
Temp: 1200
fix 1 1 nvt temp 1200 1200 0.01 fixedpoint 20.0 20.0 20.0
timestep 0.0001
run 10000
Step Temp Press c_ape c_ake
0    1221.2011   -464.77459   -3.4589655   0.15777789
Averages over the last 51 of 101 rows, steps 5000 to 10000:
Temp Press c_ape c_ake
1198.42 -148.568 -3.45813 0.154835
Loop time of 71.3026 on 4 procs for 10000 steps with 2112 atoms

unfix 1
reset_timestep 0
variable te equal 1200+100
next a
jump SELF loop2
variable a loop 10
Temp: 1300
fix 1 1 nvt temp 1300 1300 0.01 fixedpoint 20.0 20.0 20.0
timestep 0.0001
run 10000
Step Temp Press c_ape c_ake
0     1311.461    -223.9126   -3.4733554   0.16943937
Averages over the last 51 of 101 rows, steps 5000 to 10000:
Temp Press c_ape c_ake
1302.9 -87.2739 -3.44945 0.168333
Loop time of 71.7294 on 4 procs for 10000 steps with 2112 atoms

unfix 1
reset_timestep 0
variable te equal 1300+100
next a
jump SELF loop2
variable a loop 10
Temp: 1400
fix 1 1 nvt temp 1400 1400 0.01 fixedpoint 20.0 20.0 20.0
timestep 0.0001
run 10000
Step Temp Press c_ape c_ake
0    1291.4758    494.72973   -3.4482931    0.1668573
Averages over the last 51 of 101 rows, steps 5000 to 10000:
Temp Press c_ape c_ake
1404.01 169.909 -3.44156 0.181396
Loop time of 67.8186 on 4 procs for 10000 steps with 2112 atoms

unfix 1
reset_timestep 0
variable te equal 1400+100
next a
jump SELF loop2
variable a loop 10
Temp: 1500
fix 1 1 nvt temp 1500 1500 0.01 fixedpoint 20.0 20.0 20.0
timestep 0.0001
run 10000
Step Temp Press c_ape c_ake
0    1499.4634   -54.536676   -3.4482792   0.19372908
Averages over the last 51 of 101 rows, steps 5000 to 10000:
Temp Press c_ape c_ake
1487.11 99.6326 -3.42762 0.192133
Loop time of 71.0377 on 4 procs for 10000 steps with 2112 atoms

unfix 1
reset_timestep 0
variable te equal 1500+100
next a
jump SELF loop2
variable a loop 10
Temp: 1600
fix 1 1 nvt temp 1600 1600 0.01 fixedpoint 20.0 20.0 20.0
timestep 0.0001
run 10000
Step Temp Press c_ape c_ake
0    1467.6378   -345.65783   -3.3760157   0.18961725
Averages over the last 51 of 101 rows, steps 5000 to 10000:
Temp Press c_ape c_ake
1584.26 -167.873 -3.39066 0.204684
Loop time of 70.8093 on 4 procs for 10000 steps with 2112 atoms

unfix 1
reset_timestep 0
variable te equal 1600+100
next a
jump SELF loop2
variable a loop 10
Temp: 1700
fix 1 1 nvt temp 1700 1700 0.01 fixedpoint 20.0 20.0 20.0
timestep 0.0001
run 10000
Step Temp Press c_ape c_ake
0    1680.3669   -284.22159   -3.3558408   0.21710162
Averages over the last 51 of 101 rows, steps 5000 to 10000:
Temp Press c_ape c_ake
1692.52 -233.305 -3.37251 0.218671
Loop time of 71.1201 on 4 procs for 10000 steps with 2112 atoms

unfix 1
reset_timestep 0
variable te equal 1700+100
next a
jump SELF loop2
variable a loop 10
Temp: 1800
fix 1 1 nvt temp 1800 1800 0.01 fixedpoint 20.0 20.0 20.0
timestep 0.0001
run 10000
Step Temp Press c_ape c_ake
0    1673.8725    247.66498    -3.400596   0.21626255
Averages over the last 51 of 101 rows, steps 5000 to 10000:
Temp Press c_ape c_ake
1800.48 21.4315 -3.35452 0.23262
Loop time of 71.6809 on 4 procs for 10000 steps with 2112 atoms

unfix 1
reset_timestep 0
variable te equal 1800+100
next a
jump SELF loop2
variable a loop 10
Temp: 1900
fix 1 1 nvt temp 1900 1900 0.01 fixedpoint 20.0 20.0 20.0
timestep 0.0001
run 10000
Step Temp Press c_ape c_ake
0       1795.7    413.25795   -3.3741549   0.23200254
Averages over the last 51 of 101 rows, steps 5000 to 10000:
Temp Press c_ape c_ake
1898.78 185.446 -3.34762 0.24532
Loop time of 70.9959 on 4 procs for 10000 steps with 2112 atoms

unfix 1
reset_timestep 0
variable te equal 1900+100
next a
jump SELF loop2
variable a loop 10
Temp: 2000
fix 1 1 nvt temp 2000 2000 0.01 fixedpoint 20.0 20.0 20.0
timestep 0.0001
run 10000
Step Temp Press c_ape c_ake
0    1813.4063   -95.443668   -3.3313755   0.23429018
Averages over the last 51 of 101 rows, steps 5000 to 10000:
Temp Press c_ape c_ake
1996.24 88.5724 -3.32315 0.257912
Loop time of 70.162 on 4 procs for 10000 steps with 2112 atoms

unfix 1
reset_timestep 0
variable te equal 2000+100
next a
jump SELF loop2
variable a loop 10
Temp: 2100
fix 1 1 nvt temp 2100 2100 0.01 fixedpoint 20.0 20.0 20.0
timestep 0.0001
run 10000
Step Temp Press c_ape c_ake
0    2002.4163   -286.13458   -3.2795872   0.25871006
Averages over the last 51 of 101 rows, steps 5000 to 10000:
Temp Press c_ape c_ake
2101.11 -67.1404 -3.27991 0.271461
Loop time of 70.1765 on 4 procs for 10000 steps with 2112 atoms

unfix 1
reset_timestep 0
variable te equal 2100+100
next a
jump SELF loop2
write_data Ni_$c.data
write_data Ni_HighCutoff.data
System init for write_data ...
next b
next c
clear
jump SELF loop1
variable b index "Morse_Shifted_GirifalcoWeizer_1959HighCutoff_Ni__MO_381861218831_004" "Morse_Shifted_GirifalcoWeizer_1959LowCutoff_Ni__MO_322509103239_004" "Morse_Shifted_GirifalcoWeizer_1959MedCutoff_Ni__MO_758825945924_004"
variable c index "HighCutoff" "LowCutoff" "MedCutoff"
units metal
boundary f f f
atom_style atomic
lattice custom 3.5238 a1 1.0 0.0 0.0 a2 0.0 1.0 0.0 a3 0.0 0.0 1.0 basis 0.25 0.25 0.25 basis 0.25 0.75 0.75 basis 0.75 0.25 0.75 basis 0.75 0.75 0.25
Lattice spacing in x,y,z = 3.5238000 3.5238000 3.5238000
region 1 sphere 20.0 20.0 20.0 5.0
region 2 block 0.0 40.0 0.0 40.0 0.0 40.0
create_box 1 2
Created orthogonal box = (0.0000000 0.0000000 0.0000000) to (140.95200 140.95200 140.95200)
mass 1 58.6934
create_atoms 1 region 1
Created 2112 atoms
group 1 type 1
2112 atoms in group 1
pair_style kim $b
pair_style kim Morse_Shifted_GirifalcoWeizer_1959LowCutoff_Ni__MO_322509103239_004
pair_coeff * * Ni
neighbor 2.5 bin
neigh_modify every 1 delay 1
dump 1 all atom 100 dump.Ni_$c
dump 1 all atom 100 dump.Ni_LowCutoff
compute 1 1 pe/atom
compute 2 1 ke/atom
compute ape 1 reduce ave c_1
compute ake 1 reduce ave c_2
thermo_style custom step temp press c_ape c_ake
thermo 100
variable te equal 1200
fix 1 1 nvt temp 0.001 1200 0.01 fixedpoint 20.0 20.0 20.0
timestep 0.0001
run 50000
  update every 1 steps, delay 1 steps, check yes
Step Temp Press c_ape c_ake
0            0    866.16474   -3.3696246            0
Averages over the last 251 of 501 rows, steps 25000 to 50000:
Temp Press c_ape c_ake
898.627 3.32747 -3.28402 0.116102
Loop time of 138.564 on 4 procs for 50000 steps with 2112 atoms

unfix 1
reset_timestep 0
label loop2
variable a loop 10
Temp: 1200
fix 1 1 nvt temp 1200 1200 0.01 fixedpoint 20.0 20.0 20.0
timestep 0.0001
run 10000
Step Temp Press c_ape c_ake
0    1139.1463    381.94929    -3.250464    0.1471765
Averages over the last 51 of 101 rows, steps 5000 to 10000:
Temp Press c_ape c_ake
1201.83 163.132 -3.24202 0.155275
Loop time of 27.7379 on 4 procs for 10000 steps with 2112 atoms

unfix 1
reset_timestep 0
variable te equal 1200+100
next a
jump SELF loop2
variable a loop 10
Temp: 1300
fix 1 1 nvt temp 1300 1300 0.01 fixedpoint 20.0 20.0 20.0
timestep 0.0001
run 10000
Step Temp Press c_ape c_ake
0    1175.5514    133.87118    -3.254075      0.15188
Averages over the last 51 of 101 rows, steps 5000 to 10000:
Temp Press c_ape c_ake
1296.47 225.507 -3.23447 0.167502
Loop time of 27.341 on 4 procs for 10000 steps with 2112 atoms

unfix 1
reset_timestep 0
variable te equal 1300+100
next a
jump SELF loop2
variable a loop 10
Temp: 1400
fix 1 1 nvt temp 1400 1400 0.01 fixedpoint 20.0 20.0 20.0
timestep 0.0001
run 10000
Step Temp Press c_ape c_ake
0    1235.7016   -423.83765   -3.2154216   0.15965134
Averages over the last 51 of 101 rows, steps 5000 to 10000:
Temp Press c_ape c_ake
1396.41 33.4304 -3.20484 0.180414
Loop time of 26.8564 on 4 procs for 10000 steps with 2112 atoms

unfix 1
reset_timestep 0
variable te equal 1400+100
next a
jump SELF loop2
variable a loop 10
Temp: 1500
fix 1 1 nvt temp 1500 1500 0.01 fixedpoint 20.0 20.0 20.0
timestep 0.0001
run 10000
Step Temp Press c_ape c_ake
0    1449.1479    -428.1968   -3.1756098   0.18722837
Averages over the last 51 of 101 rows, steps 5000 to 10000:
Temp Press c_ape c_ake
1496.04 -104.997 -3.18617 0.193287
Loop time of 27.8044 on 4 procs for 10000 steps with 2112 atoms

unfix 1
reset_timestep 0
variable te equal 1500+100
next a
jump SELF loop2
variable a loop 10
Temp: 1600
fix 1 1 nvt temp 1600 1600 0.01 fixedpoint 20.0 20.0 20.0
timestep 0.0001
run 10000
Step Temp Press c_ape c_ake
0    1522.8871   -114.10566    -3.176949   0.19675541
Averages over the last 51 of 101 rows, steps 5000 to 10000:
Temp Press c_ape c_ake
1597.49 -71.5226 -3.1634 0.206394
Loop time of 25.499 on 4 procs for 10000 steps with 2112 atoms

unfix 1
reset_timestep 0
variable te equal 1600+100
next a
jump SELF loop2
variable a loop 10
Temp: 1700
fix 1 1 nvt temp 1700 1700 0.01 fixedpoint 20.0 20.0 20.0
timestep 0.0001
run 10000
Step Temp Press c_ape c_ake
0     1656.395    225.77371   -3.1702376   0.21400448
Averages over the last 51 of 101 rows, steps 5000 to 10000:
Temp Press c_ape c_ake
1700.6 69.8496 -3.1474 0.219716
Loop time of 27.4763 on 4 procs for 10000 steps with 2112 atoms

unfix 1
reset_timestep 0
variable te equal 1700+100
next a
jump SELF loop2
variable a loop 10
Temp: 1800
fix 1 1 nvt temp 1800 1800 0.01 fixedpoint 20.0 20.0 20.0
timestep 0.0001
run 10000
Step Temp Press c_ape c_ake
0    1692.0249    147.92968   -3.1616412   0.21860783
Averages over the last 51 of 101 rows, steps 5000 to 10000:
Temp Press c_ape c_ake
1796.9 128.689 -3.13686 0.232157
Loop time of 27.3275 on 4 procs for 10000 steps with 2112 atoms

unfix 1
reset_timestep 0
variable te equal 1800+100
next a
jump SELF loop2
variable a loop 10
Temp: 1900
fix 1 1 nvt temp 1900 1900 0.01 fixedpoint 20.0 20.0 20.0
timestep 0.0001
run 10000
Step Temp Press c_ape c_ake
0    1784.9334   -106.65049    -3.124742   0.23061151
Averages over the last 51 of 101 rows, steps 5000 to 10000:
Temp Press c_ape c_ake
1898.66 93.094 -3.10986 0.245304
Loop time of 27.2746 on 4 procs for 10000 steps with 2112 atoms

unfix 1
reset_timestep 0
variable te equal 1900+100
next a
jump SELF loop2
variable a loop 10
Temp: 2000
fix 1 1 nvt temp 2000 2000 0.01 fixedpoint 20.0 20.0 20.0
timestep 0.0001
run 10000
Step Temp Press c_ape c_ake
0     1892.026   -211.77877   -3.0832108   0.24444776
Averages over the last 51 of 101 rows, steps 5000 to 10000:
Temp Press c_ape c_ake
2001.41 14.2633 -3.07622 0.25858
Loop time of 27.2289 on 4 procs for 10000 steps with 2112 atoms

unfix 1
reset_timestep 0
variable te equal 2000+100
next a
jump SELF loop2
variable a loop 10
Temp: 2100
fix 1 1 nvt temp 2100 2100 0.01 fixedpoint 20.0 20.0 20.0
timestep 0.0001
run 10000
Step Temp Press c_ape c_ake
0    2050.8326   -133.06487   -3.0518855    0.2649654
Averages over the last 51 of 101 rows, steps 5000 to 10000:
Temp Press c_ape c_ake
2096.33 -33.799 -3.04346 0.270844
Loop time of 26.9575 on 4 procs for 10000 steps with 2112 atoms

unfix 1
reset_timestep 0
variable te equal 2100+100
next a
jump SELF loop2
write_data Ni_$c.data
write_data Ni_LowCutoff.data
System init for write_data ...
next b
next c
clear
jump SELF loop1
variable b index "Morse_Shifted_GirifalcoWeizer_1959HighCutoff_Ni__MO_381861218831_004" "Morse_Shifted_GirifalcoWeizer_1959LowCutoff_Ni__MO_322509103239_004" "Morse_Shifted_GirifalcoWeizer_1959MedCutoff_Ni__MO_758825945924_004"
variable c index "HighCutoff" "LowCutoff" "MedCutoff"
units metal
boundary f f f
atom_style atomic
lattice custom 3.5238 a1 1.0 0.0 0.0 a2 0.0 1.0 0.0 a3 0.0 0.0 1.0 basis 0.25 0.25 0.25 basis 0.25 0.75 0.75 basis 0.75 0.25 0.75 basis 0.75 0.75 0.25
Lattice spacing in x,y,z = 3.5238000 3.5238000 3.5238000
region 1 sphere 20.0 20.0 20.0 5.0
region 2 block 0.0 40.0 0.0 40.0 0.0 40.0
create_box 1 2
Created orthogonal box = (0.0000000 0.0000000 0.0000000) to (140.95200 140.95200 140.95200)
mass 1 58.6934
create_atoms 1 region 1
Created 2112 atoms
group 1 type 1
2112 atoms in group 1
pair_style kim $b
pair_style kim Morse_Shifted_GirifalcoWeizer_1959MedCutoff_Ni__MO_758825945924_004
pair_coeff * * Ni
neighbor 2.5 bin
neigh_modify every 1 delay 1
dump 1 all atom 100 dump.Ni_$c
dump 1 all atom 100 dump.Ni_MedCutoff
compute 1 1 pe/atom
compute 2 1 ke/atom
compute ape 1 reduce ave c_1
compute ake 1 reduce ave c_2
thermo_style custom step temp press c_ape c_ake
thermo 100
variable te equal 1200
fix 1 1 nvt temp 0.001 1200 0.01 fixedpoint 20.0 20.0 20.0
timestep 0.0001
run 50000
  update every 1 steps, delay 1 steps, check yes
Step Temp Press c_ape c_ake
0            0    526.64517   -3.5711513            0
Averages over the last 251 of 501 rows, steps 25000 to 50000:
Temp Press c_ape c_ake
897.851 -24.1319 -3.4773 0.116001
Loop time of 221.014 on 4 procs for 50000 steps with 2112 atoms

unfix 1
reset_timestep 0
label loop2
variable a loop 10
Temp: 1200
fix 1 1 nvt temp 1200 1200 0.01 fixedpoint 20.0 20.0 20.0
timestep 0.0001
run 10000
Step Temp Press c_ape c_ake
0    1169.7697   -180.97642   -3.4145575     0.151133
Averages over the last 51 of 101 rows, steps 5000 to 10000:
Temp Press c_ape c_ake
1196.93 -18.669 -3.43465 0.154642
Loop time of 43.0228 on 4 procs for 10000 steps with 2112 atoms

unfix 1
reset_timestep 0
variable te equal 1200+100
next a
jump SELF loop2
variable a loop 10
Temp: 1300
fix 1 1 nvt temp 1300 1300 0.01 fixedpoint 20.0 20.0 20.0
timestep 0.0001
run 10000
Step Temp Press c_ape c_ake
0    1268.5596   -382.04498   -3.4381684   0.16389655
Averages over the last 51 of 101 rows, steps 5000 to 10000:
Temp Press c_ape c_ake
1296.68 -137.815 -3.41647 0.16753
Loop time of 43.1094 on 4 procs for 10000 steps with 2112 atoms

unfix 1
reset_timestep 0
variable te equal 1300+100
next a
jump SELF loop2
variable a loop 10
Temp: 1400
fix 1 1 nvt temp 1400 1400 0.01 fixedpoint 20.0 20.0 20.0
timestep 0.0001
run 10000
Step Temp Press c_ape c_ake
0    1365.8655    163.58605   -3.4425964   0.17646837
Averages over the last 51 of 101 rows, steps 5000 to 10000:
Temp Press c_ape c_ake
1407.84 97.5698 -3.40927 0.181891
Loop time of 43.1451 on 4 procs for 10000 steps with 2112 atoms

unfix 1
reset_timestep 0
variable te equal 1400+100
next a
jump SELF loop2
variable a loop 10
Temp: 1500
fix 1 1 nvt temp 1500 1500 0.01 fixedpoint 20.0 20.0 20.0
timestep 0.0001
run 10000
Step Temp Press c_ape c_ake
0    1494.5388     245.2533   -3.4426524   0.19309283
Averages over the last 51 of 101 rows, steps 5000 to 10000:
Temp Press c_ape c_ake
1503.61 215.707 -3.39774 0.194264
Loop time of 42.8942 on 4 procs for 10000 steps with 2112 atoms

unfix 1
reset_timestep 0
variable te equal 1500+100
next a
jump SELF loop2
variable a loop 10
Temp: 1600
fix 1 1 nvt temp 1600 1600 0.01 fixedpoint 20.0 20.0 20.0
timestep 0.0001
run 10000
Step Temp Press c_ape c_ake
0     1539.422   -272.66807   -3.4128564   0.19889169
Averages over the last 51 of 101 rows, steps 5000 to 10000:
Temp Press c_ape c_ake
1593.74 64.4584 -3.36675 0.20591
Loop time of 42.6989 on 4 procs for 10000 steps with 2112 atoms

unfix 1
reset_timestep 0
variable te equal 1600+100
next a
jump SELF loop2
variable a loop 10
Temp: 1700
fix 1 1 nvt temp 1700 1700 0.01 fixedpoint 20.0 20.0 20.0
timestep 0.0001
run 10000
Step Temp Press c_ape c_ake
0    1586.3887   -430.88718   -3.3193744   0.20495974
Averages over the last 51 of 101 rows, steps 5000 to 10000:
Temp Press c_ape c_ake
1698.2 -131.678 -3.33927 0.219406
Loop time of 42.6167 on 4 procs for 10000 steps with 2112 atoms

unfix 1
reset_timestep 0
variable te equal 1700+100
next a
jump SELF loop2
variable a loop 10
Temp: 1800
fix 1 1 nvt temp 1800 1800 0.01 fixedpoint 20.0 20.0 20.0
timestep 0.0001
run 10000
Step Temp Press c_ape c_ake
0    1677.9552   -104.54803   -3.3393933   0.21679004
Averages over the last 51 of 101 rows, steps 5000 to 10000:
Temp Press c_ape c_ake
1799.93 -94.6633 -3.31162 0.232549
Loop time of 42.8251 on 4 procs for 10000 steps with 2112 atoms

unfix 1
reset_timestep 0
variable te equal 1800+100
next a
jump SELF loop2
variable a loop 10
Temp: 1900
fix 1 1 nvt temp 1900 1900 0.01 fixedpoint 20.0 20.0 20.0
timestep 0.0001
run 10000
Step Temp Press c_ape c_ake
0    1754.9046     252.9395   -3.3272558   0.22673181
Averages over the last 51 of 101 rows, steps 5000 to 10000:
Temp Press c_ape c_ake
1896.83 66.9112 -3.30306 0.245069
Loop time of 42.8922 on 4 procs for 10000 steps with 2112 atoms

unfix 1
reset_timestep 0
variable te equal 1900+100
next a
jump SELF loop2
variable a loop 10
Temp: 2000
fix 1 1 nvt temp 2000 2000 0.01 fixedpoint 20.0 20.0 20.0
timestep 0.0001
run 10000
Step Temp Press c_ape c_ake
0    1907.4721    165.15624   -3.3172661   0.24644338
Averages over the last 51 of 101 rows, steps 5000 to 10000:
Temp Press c_ape c_ake
2000.13 125.583 -3.28562 0.258414
Loop time of 42.6405 on 4 procs for 10000 steps with 2112 atoms

unfix 1
reset_timestep 0
variable te equal 2000+100
next a
jump SELF loop2
variable a loop 10
Temp: 2100
fix 1 1 nvt temp 2100 2100 0.01 fixedpoint 20.0 20.0 20.0
timestep 0.0001
run 10000
Step Temp Press c_ape c_ake
0     1986.926   -121.11466   -3.2734603   0.25670874
Averages over the last 51 of 101 rows, steps 5000 to 10000:
Temp Press c_ape c_ake
2100.79 50.8032 -3.25495 0.27142
Loop time of 42.3439 on 4 procs for 10000 steps with 2112 atoms

unfix 1
reset_timestep 0
variable te equal 2100+100
next a
jump SELF loop2
write_data Ni_$c.data
write_data Ni_MedCutoff.data
System init for write_data ...
next b
next c
clear
jump SELF loop1
print "Done!"
Done!
