LAMMPS (24 Dec 2020)
variable lattice_spacing equal 3.80

label loop1
variable a loop 10
Lattice_spacing is 3.8

units metal
boundary f f f
atom_style atomic

lattice fcc 3.8 origin 0 0 0
Lattice spacing in x,y,z = 3.8000000 3.8000000 3.8000000
region r1 block 0 8 0 8 0 8 units lattice side in
create_box 1 r1
Created orthogonal box = (0.0000000 0.0000000 0.0000000) to (30.400000 30.400000 30.400000)
#if "$a == 1" then "create_box 1 region$a"
#if "$a > 1" then "delete_atoms group 1" #"change_box 1 boundary p p f units lattice" #"reset_timestep 0"
mass 1 26.98
create_atoms 1 region r1
Created 2048 atoms
group 1 type 1
2048 atoms in group 1
pair_style kim Morse_Shifted_GirifalcoWeizer_1959HighCutoff_Al__MO_140175748626_004
pair_coeff * * Al
neighbor 2.5 bin
neigh_modify every 1 delay 1
timestep 0.001
dump 1 all atom 100 dump.Al_3.8
thermo 100
thermo_style custom step temp press pe ke etotal
fix 1 all nvt temp 0.0001 0.0001 0.01
run 10000
  update every 1 steps, delay 1 steps, check yes
Step Temp Press PotEng KinEng TotEng
0            0    238271.42   -4494.1992            0   -4494.1992
Averages over the last 51 of 101 rows, steps 5000 to 10000:
Temp Press PotEng KinEng TotEng
0 102056 -4869.89 0 -4869.89
Loop time of 104.545 on 1 procs for 10000 steps with 2048 atoms

unfix 1
clear
variable lattice_spacing equal 3.8+0.05
next a
jump SELF loop1
variable a loop 10
Lattice_spacing is 3.85

units metal
boundary f f f
atom_style atomic

lattice fcc 3.85 origin 0 0 0
Lattice spacing in x,y,z = 3.8500000 3.8500000 3.8500000
region r1 block 0 8 0 8 0 8 units lattice side in
create_box 1 r1
Created orthogonal box = (0.0000000 0.0000000 0.0000000) to (30.800000 30.800000 30.800000)
#if "$a == 1" then "create_box 1 region$a"
#if "$a > 1" then "delete_atoms group 1" #"change_box 1 boundary p p f units lattice" #"reset_timestep 0"
mass 1 26.98
create_atoms 1 region r1
Created 2048 atoms
group 1 type 1
2048 atoms in group 1
pair_style kim Morse_Shifted_GirifalcoWeizer_1959HighCutoff_Al__MO_140175748626_004
pair_coeff * * Al
neighbor 2.5 bin
neigh_modify every 1 delay 1
timestep 0.001
dump 1 all atom 100 dump.Al_3.85
thermo 100
thermo_style custom step temp press pe ke etotal
fix 1 all nvt temp 0.0001 0.0001 0.01
run 10000
  update every 1 steps, delay 1 steps, check yes
Step Temp Press PotEng KinEng TotEng
0            0    181424.91   -4640.8022            0   -4640.8022
Averages over the last 51 of 101 rows, steps 5000 to 10000:
Temp Press PotEng KinEng TotEng
0 77811.4 -4907.87 0 -4907.87
Loop time of 99.7148 on 1 procs for 10000 steps with 2048 atoms

unfix 1
clear
variable lattice_spacing equal 3.85+0.05
next a
jump SELF loop1
variable a loop 10
Lattice_spacing is 3.9

units metal
boundary f f f
atom_style atomic

lattice fcc 3.9 origin 0 0 0
Lattice spacing in x,y,z = 3.9000000 3.9000000 3.9000000
region r1 block 0 8 0 8 0 8 units lattice side in
create_box 1 r1
Created orthogonal box = (0.0000000 0.0000000 0.0000000) to (31.200000 31.200000 31.200000)
#if "$a == 1" then "create_box 1 region$a"
#if "$a > 1" then "delete_atoms group 1" #"change_box 1 boundary p p f units lattice" #"reset_timestep 0"
mass 1 26.98
create_atoms 1 region r1
Created 2048 atoms
group 1 type 1
2048 atoms in group 1
pair_style kim Morse_Shifted_GirifalcoWeizer_1959HighCutoff_Al__MO_140175748626_004
pair_coeff * * Al
neighbor 2.5 bin
neigh_modify every 1 delay 1
timestep 0.001
dump 1 all atom 100 dump.Al_3.9
thermo 100
thermo_style custom step temp press pe ke etotal
fix 1 all nvt temp 0.0001 0.0001 0.01
run 10000
  update every 1 steps, delay 1 steps, check yes
Step Temp Press PotEng KinEng TotEng
0            0    132683.03   -4753.3034            0   -4753.3034
Averages over the last 51 of 101 rows, steps 5000 to 10000:
Temp Press PotEng KinEng TotEng
0 55843.8 -4937.59 0 -4937.59
Loop time of 95.8124 on 1 procs for 10000 steps with 2048 atoms

unfix 1
clear
variable lattice_spacing equal 3.9+0.05
next a
jump SELF loop1
variable a loop 10
Lattice_spacing is 3.95

units metal
boundary f f f
atom_style atomic

lattice fcc 3.95 origin 0 0 0
Lattice spacing in x,y,z = 3.9500000 3.9500000 3.9500000
region r1 block 0 8 0 8 0 8 units lattice side in
create_box 1 r1
Created orthogonal box = (0.0000000 0.0000000 0.0000000) to (31.600000 31.600000 31.600000)
#if "$a == 1" then "create_box 1 region$a"
#if "$a > 1" then "delete_atoms group 1" #"change_box 1 boundary p p f units lattice" #"reset_timestep 0"
mass 1 26.98
create_atoms 1 region r1
Created 2048 atoms
group 1 type 1
2048 atoms in group 1
pair_style kim Morse_Shifted_GirifalcoWeizer_1959HighCutoff_Al__MO_140175748626_004
pair_coeff * * Al
neighbor 2.5 bin
neigh_modify every 1 delay 1
timestep 0.001
dump 1 all atom 100 dump.Al_3.95
thermo 100
thermo_style custom step temp press pe ke etotal
fix 1 all nvt temp 0.0001 0.0001 0.01
run 10000
  update every 1 steps, delay 1 steps, check yes
Step Temp Press PotEng KinEng TotEng
0            0    91304.648   -4835.5377            0   -4835.5377
Averages over the last 51 of 101 rows, steps 5000 to 10000:
Temp Press PotEng KinEng TotEng
0 36040.5 -4958.91 0 -4958.91
Loop time of 94.2042 on 1 procs for 10000 steps with 2048 atoms

unfix 1
clear
variable lattice_spacing equal 3.95+0.05
next a
jump SELF loop1
variable a loop 10
Lattice_spacing is 4

units metal
boundary f f f
atom_style atomic

lattice fcc 4 origin 0 0 0
Lattice spacing in x,y,z = 4.0000000 4.0000000 4.0000000
region r1 block 0 8 0 8 0 8 units lattice side in
create_box 1 r1
Created orthogonal box = (0.0000000 0.0000000 0.0000000) to (32.000000 32.000000 32.000000)
#if "$a == 1" then "create_box 1 region$a"
#if "$a > 1" then "delete_atoms group 1" #"change_box 1 boundary p p f units lattice" #"reset_timestep 0"
mass 1 26.98
create_atoms 1 region r1
Created 2048 atoms
group 1 type 1
2048 atoms in group 1
pair_style kim Morse_Shifted_GirifalcoWeizer_1959HighCutoff_Al__MO_140175748626_004
pair_coeff * * Al
neighbor 2.5 bin
neigh_modify every 1 delay 1
timestep 0.001
dump 1 all atom 100 dump.Al_4
thermo 100
thermo_style custom step temp press pe ke etotal
fix 1 all nvt temp 0.0001 0.0001 0.01
run 10000
  update every 1 steps, delay 1 steps, check yes
Step Temp Press PotEng KinEng TotEng
0            0    56128.904   -4890.9451            0   -4890.9451
Averages over the last 51 of 101 rows, steps 5000 to 10000:
Temp Press PotEng KinEng TotEng
0 18250.1 -4971.66 0 -4971.66
Loop time of 92.1857 on 1 procs for 10000 steps with 2048 atoms

unfix 1
clear
variable lattice_spacing equal 4+0.05
next a
jump SELF loop1
variable a loop 10
Lattice_spacing is 4.05

units metal
boundary f f f
atom_style atomic

lattice fcc 4.05 origin 0 0 0
Lattice spacing in x,y,z = 4.0500000 4.0500000 4.0500000
region r1 block 0 8 0 8 0 8 units lattice side in
create_box 1 r1
Created orthogonal box = (0.0000000 0.0000000 0.0000000) to (32.400000 32.400000 32.400000)
#if "$a == 1" then "create_box 1 region$a"
#if "$a > 1" then "delete_atoms group 1" #"change_box 1 boundary p p f units lattice" #"reset_timestep 0"
mass 1 26.98
create_atoms 1 region r1
Created 2048 atoms
group 1 type 1
2048 atoms in group 1
pair_style kim Morse_Shifted_GirifalcoWeizer_1959HighCutoff_Al__MO_140175748626_004
pair_coeff * * Al
neighbor 2.5 bin
neigh_modify every 1 delay 1
timestep 0.001
dump 1 all atom 100 dump.Al_4.05
thermo 100
thermo_style custom step temp press pe ke etotal
fix 1 all nvt temp 0.0001 0.0001 0.01
run 10000
  update every 1 steps, delay 1 steps, check yes
Step Temp Press PotEng KinEng TotEng
0            0     26568.96   -4922.6639            0   -4922.6639
Averages over the last 51 of 101 rows, steps 5000 to 10000:
Temp Press PotEng KinEng TotEng
0 2396.39 -4975.83 0 -4975.83
Loop time of 85.8738 on 1 procs for 10000 steps with 2048 atoms

unfix 1
clear
variable lattice_spacing equal 4.05+0.05
next a
jump SELF loop1
variable a loop 10
Lattice_spacing is 4.1

units metal
boundary f f f
atom_style atomic

lattice fcc 4.1 origin 0 0 0
Lattice spacing in x,y,z = 4.1000000 4.1000000 4.1000000
region r1 block 0 8 0 8 0 8 units lattice side in
create_box 1 r1
Created orthogonal box = (0.0000000 0.0000000 0.0000000) to (32.800000 32.800000 32.800000)
#if "$a == 1" then "create_box 1 region$a"
#if "$a > 1" then "delete_atoms group 1" #"change_box 1 boundary p p f units lattice" #"reset_timestep 0"
mass 1 26.98
create_atoms 1 region r1
Created 2048 atoms
group 1 type 1
2048 atoms in group 1
pair_style kim Morse_Shifted_GirifalcoWeizer_1959HighCutoff_Al__MO_140175748626_004
pair_coeff * * Al
neighbor 2.5 bin
neigh_modify every 1 delay 1
timestep 0.001
dump 1 all atom 100 dump.Al_4.1
thermo 100
thermo_style custom step temp press pe ke etotal
fix 1 all nvt temp 0.0001 0.0001 0.01
run 10000
  update every 1 steps, delay 1 steps, check yes
Step Temp Press PotEng KinEng TotEng
0            0    1584.0013   -4933.5354            0   -4933.5354
Averages over the last 51 of 101 rows, steps 5000 to 10000:
Temp Press PotEng KinEng TotEng
0 -11669.6 -4971.54 0 -4971.54
Loop time of 84.5731 on 1 procs for 10000 steps with 2048 atoms

unfix 1
clear
variable lattice_spacing equal 4.1+0.05
next a
jump SELF loop1
variable a loop 10
Lattice_spacing is 4.15

units metal
boundary f f f
atom_style atomic

lattice fcc 4.15 origin 0 0 0
Lattice spacing in x,y,z = 4.1500000 4.1500000 4.1500000
region r1 block 0 8 0 8 0 8 units lattice side in
create_box 1 r1
Created orthogonal box = (0.0000000 0.0000000 0.0000000) to (33.200000 33.200000 33.200000)
#if "$a == 1" then "create_box 1 region$a"
#if "$a > 1" then "delete_atoms group 1" #"change_box 1 boundary p p f units lattice" #"reset_timestep 0"
mass 1 26.98
create_atoms 1 region r1
Created 2048 atoms
group 1 type 1
2048 atoms in group 1
pair_style kim Morse_Shifted_GirifalcoWeizer_1959HighCutoff_Al__MO_140175748626_004
pair_coeff * * Al
neighbor 2.5 bin
neigh_modify every 1 delay 1
timestep 0.001
dump 1 all atom 100 dump.Al_4.15
thermo 100
thermo_style custom step temp press pe ke etotal
fix 1 all nvt temp 0.0001 0.0001 0.01
run 10000
  update every 1 steps, delay 1 steps, check yes
Step Temp Press PotEng KinEng TotEng
0            0    -19290.29   -4926.0203            0   -4926.0203
Averages over the last 51 of 101 rows, steps 5000 to 10000:
Temp Press PotEng KinEng TotEng
0 -24098.3 -4958.89 0 -4958.89
Loop time of 84.3981 on 1 procs for 10000 steps with 2048 atoms

unfix 1
clear
variable lattice_spacing equal 4.15+0.05
next a
jump SELF loop1
variable a loop 10
Lattice_spacing is 4.2

units metal
boundary f f f
atom_style atomic

lattice fcc 4.2 origin 0 0 0
Lattice spacing in x,y,z = 4.2000000 4.2000000 4.2000000
region r1 block 0 8 0 8 0 8 units lattice side in
create_box 1 r1
Created orthogonal box = (0.0000000 0.0000000 0.0000000) to (33.600000 33.600000 33.600000)
#if "$a == 1" then "create_box 1 region$a"
#if "$a > 1" then "delete_atoms group 1" #"change_box 1 boundary p p f units lattice" #"reset_timestep 0"
mass 1 26.98
create_atoms 1 region r1
Created 2048 atoms
group 1 type 1
2048 atoms in group 1
pair_style kim Morse_Shifted_GirifalcoWeizer_1959HighCutoff_Al__MO_140175748626_004
pair_coeff * * Al
neighbor 2.5 bin
neigh_modify every 1 delay 1
timestep 0.001
dump 1 all atom 100 dump.Al_4.2
thermo 100
thermo_style custom step temp press pe ke etotal
fix 1 all nvt temp 0.0001 0.0001 0.01
run 10000
  update every 1 steps, delay 1 steps, check yes
Step Temp Press PotEng KinEng TotEng
0            0   -36577.454   -4902.4333            0   -4902.4333
Averages over the last 51 of 101 rows, steps 5000 to 10000:
Temp Press PotEng KinEng TotEng
0 -34957.5 -4938.12 0 -4938.12
Loop time of 82.203 on 1 procs for 10000 steps with 2048 atoms

unfix 1
clear
variable lattice_spacing equal 4.2+0.05
next a
jump SELF loop1
variable a loop 10
Lattice_spacing is 4.25

units metal
boundary f f f
atom_style atomic

lattice fcc 4.25 origin 0 0 0
Lattice spacing in x,y,z = 4.2500000 4.2500000 4.2500000
region r1 block 0 8 0 8 0 8 units lattice side in
create_box 1 r1
Created orthogonal box = (0.0000000 0.0000000 0.0000000) to (34.000000 34.000000 34.000000)
#if "$a == 1" then "create_box 1 region$a"
#if "$a > 1" then "delete_atoms group 1" #"change_box 1 boundary p p f units lattice" #"reset_timestep 0"
mass 1 26.98
create_atoms 1 region r1
Created 2048 atoms
group 1 type 1
2048 atoms in group 1
pair_style kim Morse_Shifted_GirifalcoWeizer_1959HighCutoff_Al__MO_140175748626_004
pair_coeff * * Al
neighbor 2.5 bin
neigh_modify every 1 delay 1
timestep 0.001
dump 1 all atom 100 dump.Al_4.25
thermo 100
thermo_style custom step temp press pe ke etotal
fix 1 all nvt temp 0.0001 0.0001 0.01
run 10000
  update every 1 steps, delay 1 steps, check yes
Step Temp Press PotEng KinEng TotEng
0            0   -50829.536   -4864.8099            0   -4864.8099
Averages over the last 51 of 101 rows, steps 5000 to 10000:
Temp Press PotEng KinEng TotEng
0 -44393.1 -4909.54 0 -4909.54
Loop time of 81.3193 on 1 procs for 10000 steps with 2048 atoms

unfix 1
clear
variable lattice_spacing equal 4.25+0.05
next a
jump SELF loop1
variable a delete
print "done..."
done...
