LAMMPS (24 Dec 2020)
variable lattice_spacing equal 3.80

label loop1
variable a loop 10
Lattice_spacing is 3.8

units metal
boundary f f f
atom_style atomic

lattice fcc 3.8 origin 0 0 0
Lattice spacing in x,y,z = 3.8000000 3.8000000 3.8000000
region r1 block 0 8 0 8 0 8 units lattice side in
create_box 1 r1
Created orthogonal box = (0.0000000 0.0000000 0.0000000) to (30.400000 30.400000 30.400000)
#if "$a == 1" then "create_box 1 region$a"
#if "$a > 1" then "delete_atoms group 1" #"change_box 1 boundary p p f units lattice" #"reset_timestep 0"
mass 1 26.98
create_atoms 1 region r1
Created 2048 atoms
group 1 type 1
2048 atoms in group 1
pair_style kim Morse_Shifted_GirifalcoWeizer_1959LowCutoff_Al__MO_411898953661_004
pair_coeff * * Al
neighbor 2.5 bin
neigh_modify every 1 delay 1
timestep 0.001
dump 1 all atom 100 dump.Al_3.8
thermo 100
thermo_style custom step temp press pe ke etotal
fix 1 all nvt temp 0.0001 0.0001 0.01
run 10000
  update every 1 steps, delay 1 steps, check yes
Step Temp Press PotEng KinEng TotEng
0            0     258624.6   -4110.7637            0   -4110.7637
Averages over the last 51 of 101 rows, steps 5000 to 10000:
Temp Press PotEng KinEng TotEng
0 112642 -4521.26 0 -4521.26
Loop time of 40.8239 on 1 procs for 10000 steps with 2048 atoms

unfix 1
clear
variable lattice_spacing equal 3.8+0.05
next a
jump SELF loop1
variable a loop 10
Lattice_spacing is 3.85

units metal
boundary f f f
atom_style atomic

lattice fcc 3.85 origin 0 0 0
Lattice spacing in x,y,z = 3.8500000 3.8500000 3.8500000
region r1 block 0 8 0 8 0 8 units lattice side in
create_box 1 r1
Created orthogonal box = (0.0000000 0.0000000 0.0000000) to (30.800000 30.800000 30.800000)
#if "$a == 1" then "create_box 1 region$a"
#if "$a > 1" then "delete_atoms group 1" #"change_box 1 boundary p p f units lattice" #"reset_timestep 0"
mass 1 26.98
create_atoms 1 region r1
Created 2048 atoms
group 1 type 1
2048 atoms in group 1
pair_style kim Morse_Shifted_GirifalcoWeizer_1959LowCutoff_Al__MO_411898953661_004
pair_coeff * * Al
neighbor 2.5 bin
neigh_modify every 1 delay 1
timestep 0.001
dump 1 all atom 100 dump.Al_3.85
thermo 100
thermo_style custom step temp press pe ke etotal
fix 1 all nvt temp 0.0001 0.0001 0.01
run 10000
  update every 1 steps, delay 1 steps, check yes
Step Temp Press PotEng KinEng TotEng
0            0    198536.85   -4270.4282            0   -4270.4282
Averages over the last 51 of 101 rows, steps 5000 to 10000:
Temp Press PotEng KinEng TotEng
0 87669.2 -4562.98 0 -4562.98
Loop time of 40.6964 on 1 procs for 10000 steps with 2048 atoms

unfix 1
clear
variable lattice_spacing equal 3.85+0.05
next a
jump SELF loop1
variable a loop 10
Lattice_spacing is 3.9

units metal
boundary f f f
atom_style atomic

lattice fcc 3.9 origin 0 0 0
Lattice spacing in x,y,z = 3.9000000 3.9000000 3.9000000
region r1 block 0 8 0 8 0 8 units lattice side in
create_box 1 r1
Created orthogonal box = (0.0000000 0.0000000 0.0000000) to (31.200000 31.200000 31.200000)
#if "$a == 1" then "create_box 1 region$a"
#if "$a > 1" then "delete_atoms group 1" #"change_box 1 boundary p p f units lattice" #"reset_timestep 0"
mass 1 26.98
create_atoms 1 region r1
Created 2048 atoms
group 1 type 1
2048 atoms in group 1
pair_style kim Morse_Shifted_GirifalcoWeizer_1959LowCutoff_Al__MO_411898953661_004
pair_coeff * * Al
neighbor 2.5 bin
neigh_modify every 1 delay 1
timestep 0.001
dump 1 all atom 100 dump.Al_3.9
thermo 100
thermo_style custom step temp press pe ke etotal
fix 1 all nvt temp 0.0001 0.0001 0.01
run 10000
  update every 1 steps, delay 1 steps, check yes
Step Temp Press PotEng KinEng TotEng
0            0    147275.08    -4394.311            0    -4394.311
Averages over the last 51 of 101 rows, steps 5000 to 10000:
Temp Press PotEng KinEng TotEng
0 65320.7 -4596.86 0 -4596.86
Loop time of 39.452 on 1 procs for 10000 steps with 2048 atoms

unfix 1
clear
variable lattice_spacing equal 3.9+0.05
next a
jump SELF loop1
variable a loop 10
Lattice_spacing is 3.95

units metal
boundary f f f
atom_style atomic

lattice fcc 3.95 origin 0 0 0
Lattice spacing in x,y,z = 3.9500000 3.9500000 3.9500000
region r1 block 0 8 0 8 0 8 units lattice side in
create_box 1 r1
Created orthogonal box = (0.0000000 0.0000000 0.0000000) to (31.600000 31.600000 31.600000)
#if "$a == 1" then "create_box 1 region$a"
#if "$a > 1" then "delete_atoms group 1" #"change_box 1 boundary p p f units lattice" #"reset_timestep 0"
mass 1 26.98
create_atoms 1 region r1
Created 2048 atoms
group 1 type 1
2048 atoms in group 1
pair_style kim Morse_Shifted_GirifalcoWeizer_1959LowCutoff_Al__MO_411898953661_004
pair_coeff * * Al
neighbor 2.5 bin
neigh_modify every 1 delay 1
timestep 0.001
dump 1 all atom 100 dump.Al_3.95
thermo 100
thermo_style custom step temp press pe ke etotal
fix 1 all nvt temp 0.0001 0.0001 0.01
run 10000
  update every 1 steps, delay 1 steps, check yes
Step Temp Press PotEng KinEng TotEng
0            0    105386.83   -4487.8229            0   -4487.8229
Averages over the last 51 of 101 rows, steps 5000 to 10000:
Temp Press PotEng KinEng TotEng
0 45111 -4622.98 0 -4622.98
Loop time of 39.0709 on 1 procs for 10000 steps with 2048 atoms

unfix 1
clear
variable lattice_spacing equal 3.95+0.05
next a
jump SELF loop1
variable a loop 10
Lattice_spacing is 4

units metal
boundary f f f
atom_style atomic

lattice fcc 4 origin 0 0 0
Lattice spacing in x,y,z = 4.0000000 4.0000000 4.0000000
region r1 block 0 8 0 8 0 8 units lattice side in
create_box 1 r1
Created orthogonal box = (0.0000000 0.0000000 0.0000000) to (32.000000 32.000000 32.000000)
#if "$a == 1" then "create_box 1 region$a"
#if "$a > 1" then "delete_atoms group 1" #"change_box 1 boundary p p f units lattice" #"reset_timestep 0"
mass 1 26.98
create_atoms 1 region r1
Created 2048 atoms
group 1 type 1
2048 atoms in group 1
pair_style kim Morse_Shifted_GirifalcoWeizer_1959LowCutoff_Al__MO_411898953661_004
pair_coeff * * Al
neighbor 2.5 bin
neigh_modify every 1 delay 1
timestep 0.001
dump 1 all atom 100 dump.Al_4
thermo 100
thermo_style custom step temp press pe ke etotal
fix 1 all nvt temp 0.0001 0.0001 0.01
run 10000
  update every 1 steps, delay 1 steps, check yes
Step Temp Press PotEng KinEng TotEng
0            0    68176.938   -4553.1023            0   -4553.1023
Averages over the last 51 of 101 rows, steps 5000 to 10000:
Temp Press PotEng KinEng TotEng
0 26508.4 -4640.21 0 -4640.21
Loop time of 40.1831 on 1 procs for 10000 steps with 2048 atoms

unfix 1
clear
variable lattice_spacing equal 4+0.05
next a
jump SELF loop1
variable a loop 10
Lattice_spacing is 4.05

units metal
boundary f f f
atom_style atomic

lattice fcc 4.05 origin 0 0 0
Lattice spacing in x,y,z = 4.0500000 4.0500000 4.0500000
region r1 block 0 8 0 8 0 8 units lattice side in
create_box 1 r1
Created orthogonal box = (0.0000000 0.0000000 0.0000000) to (32.400000 32.400000 32.400000)
#if "$a == 1" then "create_box 1 region$a"
#if "$a > 1" then "delete_atoms group 1" #"change_box 1 boundary p p f units lattice" #"reset_timestep 0"
mass 1 26.98
create_atoms 1 region r1
Created 2048 atoms
group 1 type 1
2048 atoms in group 1
pair_style kim Morse_Shifted_GirifalcoWeizer_1959LowCutoff_Al__MO_411898953661_004
pair_coeff * * Al
neighbor 2.5 bin
neigh_modify every 1 delay 1
timestep 0.001
dump 1 all atom 100 dump.Al_4.05
thermo 100
thermo_style custom step temp press pe ke etotal
fix 1 all nvt temp 0.0001 0.0001 0.01
run 10000
  update every 1 steps, delay 1 steps, check yes
Step Temp Press PotEng KinEng TotEng
0            0    36738.761   -4593.4425            0   -4593.4425
Averages over the last 51 of 101 rows, steps 5000 to 10000:
Temp Press PotEng KinEng TotEng
0 9931.55 -4648.84 0 -4648.84
Loop time of 37.2513 on 1 procs for 10000 steps with 2048 atoms

unfix 1
clear
variable lattice_spacing equal 4.05+0.05
next a
jump SELF loop1
variable a loop 10
Lattice_spacing is 4.1

units metal
boundary f f f
atom_style atomic

lattice fcc 4.1 origin 0 0 0
Lattice spacing in x,y,z = 4.1000000 4.1000000 4.1000000
region r1 block 0 8 0 8 0 8 units lattice side in
create_box 1 r1
Created orthogonal box = (0.0000000 0.0000000 0.0000000) to (32.800000 32.800000 32.800000)
#if "$a == 1" then "create_box 1 region$a"
#if "$a > 1" then "delete_atoms group 1" #"change_box 1 boundary p p f units lattice" #"reset_timestep 0"
mass 1 26.98
create_atoms 1 region r1
Created 2048 atoms
group 1 type 1
2048 atoms in group 1
pair_style kim Morse_Shifted_GirifalcoWeizer_1959LowCutoff_Al__MO_411898953661_004
pair_coeff * * Al
neighbor 2.5 bin
neigh_modify every 1 delay 1
timestep 0.001
dump 1 all atom 100 dump.Al_4.1
thermo 100
thermo_style custom step temp press pe ke etotal
fix 1 all nvt temp 0.0001 0.0001 0.01
run 10000
  update every 1 steps, delay 1 steps, check yes
Step Temp Press PotEng KinEng TotEng
0            0    10297.039   -4611.8117            0   -4611.8117
Averages over the last 51 of 101 rows, steps 5000 to 10000:
Temp Press PotEng KinEng TotEng
0 -4498.76 -4648.99 0 -4648.99
Loop time of 36.4823 on 1 procs for 10000 steps with 2048 atoms

unfix 1
clear
variable lattice_spacing equal 4.1+0.05
next a
jump SELF loop1
variable a loop 10
Lattice_spacing is 4.15

units metal
boundary f f f
atom_style atomic

lattice fcc 4.15 origin 0 0 0
Lattice spacing in x,y,z = 4.1500000 4.1500000 4.1500000
region r1 block 0 8 0 8 0 8 units lattice side in
create_box 1 r1
Created orthogonal box = (0.0000000 0.0000000 0.0000000) to (33.200000 33.200000 33.200000)
#if "$a == 1" then "create_box 1 region$a"
#if "$a > 1" then "delete_atoms group 1" #"change_box 1 boundary p p f units lattice" #"reset_timestep 0"
mass 1 26.98
create_atoms 1 region r1
Created 2048 atoms
group 1 type 1
2048 atoms in group 1
pair_style kim Morse_Shifted_GirifalcoWeizer_1959LowCutoff_Al__MO_411898953661_004
pair_coeff * * Al
neighbor 2.5 bin
neigh_modify every 1 delay 1
timestep 0.001
dump 1 all atom 100 dump.Al_4.15
thermo 100
thermo_style custom step temp press pe ke etotal
fix 1 all nvt temp 0.0001 0.0001 0.01
run 10000
  update every 1 steps, delay 1 steps, check yes
Step Temp Press PotEng KinEng TotEng
0            0   -11822.321   -4610.8804            0   -4610.8804
Averages over the last 51 of 101 rows, steps 5000 to 10000:
Temp Press PotEng KinEng TotEng
0 -16771.6 -4641.05 0 -4641.05
Loop time of 36.466 on 1 procs for 10000 steps with 2048 atoms

unfix 1
clear
variable lattice_spacing equal 4.15+0.05
next a
jump SELF loop1
variable a loop 10
Lattice_spacing is 4.2

units metal
boundary f f f
atom_style atomic

lattice fcc 4.2 origin 0 0 0
Lattice spacing in x,y,z = 4.2000000 4.2000000 4.2000000
region r1 block 0 8 0 8 0 8 units lattice side in
create_box 1 r1
Created orthogonal box = (0.0000000 0.0000000 0.0000000) to (33.600000 33.600000 33.600000)
#if "$a == 1" then "create_box 1 region$a"
#if "$a > 1" then "delete_atoms group 1" #"change_box 1 boundary p p f units lattice" #"reset_timestep 0"
mass 1 26.98
create_atoms 1 region r1
Created 2048 atoms
group 1 type 1
2048 atoms in group 1
pair_style kim Morse_Shifted_GirifalcoWeizer_1959LowCutoff_Al__MO_411898953661_004
pair_coeff * * Al
neighbor 2.5 bin
neigh_modify every 1 delay 1
timestep 0.001
dump 1 all atom 100 dump.Al_4.2
thermo 100
thermo_style custom step temp press pe ke etotal
fix 1 all nvt temp 0.0001 0.0001 0.01
run 10000
  update every 1 steps, delay 1 steps, check yes
Step Temp Press PotEng KinEng TotEng
0            0   -19555.414   -4598.7396            0   -4598.7396
Averages over the last 51 of 101 rows, steps 5000 to 10000:
Temp Press PotEng KinEng TotEng
0 -24920.3 -4624.28 0 -4624.28
Loop time of 32.1054 on 1 procs for 10000 steps with 2048 atoms

unfix 1
clear
variable lattice_spacing equal 4.2+0.05
next a
jump SELF loop1
variable a loop 10
Lattice_spacing is 4.25

units metal
boundary f f f
atom_style atomic

lattice fcc 4.25 origin 0 0 0
Lattice spacing in x,y,z = 4.2500000 4.2500000 4.2500000
region r1 block 0 8 0 8 0 8 units lattice side in
create_box 1 r1
Created orthogonal box = (0.0000000 0.0000000 0.0000000) to (34.000000 34.000000 34.000000)
#if "$a == 1" then "create_box 1 region$a"
#if "$a > 1" then "delete_atoms group 1" #"change_box 1 boundary p p f units lattice" #"reset_timestep 0"
mass 1 26.98
create_atoms 1 region r1
Created 2048 atoms
group 1 type 1
2048 atoms in group 1
pair_style kim Morse_Shifted_GirifalcoWeizer_1959LowCutoff_Al__MO_411898953661_004
pair_coeff * * Al
neighbor 2.5 bin
neigh_modify every 1 delay 1
timestep 0.001
dump 1 all atom 100 dump.Al_4.25
thermo 100
thermo_style custom step temp press pe ke etotal
fix 1 all nvt temp 0.0001 0.0001 0.01
run 10000
  update every 1 steps, delay 1 steps, check yes
Step Temp Press PotEng KinEng TotEng
0            0   -36030.891   -4574.7039            0   -4574.7039
Averages over the last 51 of 101 rows, steps 5000 to 10000:
Temp Press PotEng KinEng TotEng
0 -32490.4 -4603.42 0 -4603.42
Loop time of 29.401 on 1 procs for 10000 steps with 2048 atoms

unfix 1
clear
variable lattice_spacing equal 4.25+0.05
next a
jump SELF loop1
variable a delete
print "done..."
done...
